**DIRAC
.TITLE
MRCI for O
.WAVE F
.ANALYZE
**ANALYZE
.MULPOP
*MULPOP
.VECPOP
1..oo
#################################
**HAMILTONIAN
.DOSSSS
.OPERATOR
 ZDIPLEN
 COMFACTOR
 zff
**WAVE FUNCTION
.SCF
.KR CI
.RESOLVE
*SCF
.CLOSED SHELL
4
.OPEN SHELL
1
4/6
*KRCICALC
.CI PROGRAM
LUCIAREL
.INACTIVE
0
.GAS SHELLS
3
2 4 / 2 ! 1s2s
6 8 / 3 ! 2p
8 8 / 92
.CIROOTS
1 3
.CIROOTS
2 2
.MAX CI
120
.MXCIVE
60
.ANALYZ
.RSTRCI
rstr
.CHECKP
.NOOCCN
*END OF
