**DIRAC
.TITLE
Al, SCF
.WAVE F
.4INDEX
.ANALYZE
**ANALYZE
.MULPOP
*MULPOP
.VECPOP
1..oo
**HAMILTONIAN
.DOSSSS
.OPERATOR
 ZDIPLEN
 COMFACTOR
 zff
**INTEGRALS
*READINP
.UNCONTRACT
**WAVE FUNCTIONS
#.SCF
.KR CI
.RESOLVE
*SCF
# Al atom and Econf: 1s^2 2s^2 2p^6 3s^2 3p^1
.CLOSED SHELL
12
.OPEN SHELL
1
1/6
.EVCCNV
1.0D-9  5.0D-8
.MAXITR
60
*KRCICALC
.CI PROGRAM
LUCIAREL
.INACTIVE
0
.GAS SHELLS
3
10 12 / 6
11 13 / 3
13 13 / 109
.CIROOTS
3 3
.CIROOTS
4 3
.MAX CI
120
.MXCIVE
60
.ANALYZ
.RSTRCI
rstr
.CHECKP
*END OF
